Version 4
SHEET 1 5828 788
WIRE -368 -96 -576 -96
WIRE -240 -96 -368 -96
WIRE 336 -96 -144 -96
WIRE 224 16 144 16
WIRE -368 32 -368 -96
WIRE -320 32 -368 32
WIRE -192 32 -192 -32
WIRE -192 32 -240 32
WIRE -48 32 -192 32
WIRE 80 32 -48 32
WIRE 336 48 336 -96
WIRE 336 48 144 48
WIRE 528 48 528 -16
WIRE 528 48 336 48
WIRE 688 48 528 48
WIRE 752 48 688 48
WIRE 1088 48 1008 48
WIRE 1200 48 1088 48
WIRE 1424 48 1424 -16
WIRE 1424 48 1200 48
WIRE -576 96 -576 -96
WIRE 1200 96 1200 48
WIRE 528 112 528 48
WIRE 688 144 688 48
WIRE 1088 144 1088 48
WIRE -48 160 -48 32
WIRE 336 160 336 48
WIRE 528 224 528 192
WIRE 1200 224 1200 176
WIRE 336 352 336 224
WIRE 528 352 528 288
WIRE 528 352 336 352
WIRE 688 352 688 208
WIRE 688 352 528 352
WIRE 880 352 880 144
WIRE 880 352 688 352
WIRE 1088 352 1088 208
WIRE 1088 352 880 352
WIRE 1200 352 1200 288
WIRE 1200 352 1088 352
WIRE -576 384 -576 176
WIRE -48 384 -48 224
WIRE 336 384 336 352
WIRE 640 624 640 560
WIRE 960 624 960 560
WIRE 640 768 640 704
WIRE 960 768 960 704
FLAG -576 384 0
FLAG -48 384 0
FLAG 336 384 0
FLAG 224 16 0
FLAG 528 -16 5V
IOPIN 528 -16 Out
FLAG 1424 -16 3.3V
IOPIN 1424 -16 Out
FLAG 640 560 5V
IOPIN 640 560 Out
FLAG 960 560 3.3V
IOPIN 960 560 Out
FLAG 640 768 0
FLAG 960 768 0
SYMBOL pnp -144 -32 M270
SYMATTR InstName Q1
SYMATTR Value TIP42C
SYMBOL res -224 16 R90
WINDOW 0 0 56 VBottom 2
WINDOW 3 32 56 VTop 2
SYMATTR InstName R1
SYMATTR Value 2.8
SYMBOL voltage -576 80 R0
WINDOW 123 0 0 Left 0
WINDOW 39 0 0 Left 0
SYMATTR InstName V1
SYMATTR Value 12
SYMBOL cap -64 160 R0
SYMATTR InstName C1
SYMATTR Value 100µ
SYMBOL cap 320 160 R0
SYMATTR InstName C2
SYMATTR Value 100µ
SYMBOL AutoGenerated\\78L05 112 32 R0
WINDOW 3 9 40 Top 2
SYMATTR InstName U1
SYMBOL res 512 96 R0
SYMATTR InstName R2
SYMATTR Value 680
SYMBOL LED 512 224 R0
SYMATTR InstName D1
SYMBOL PowerProducts\\LT1117-3.3 880 48 R0
SYMATTR InstName U2
SYMBOL cap 672 144 R0
SYMATTR InstName C3
SYMATTR Value 10µ
SYMBOL cap 1072 144 R0
SYMATTR InstName C4
SYMATTR Value 10µ
SYMBOL res 1184 80 R0
SYMATTR InstName R5
SYMATTR Value 470
SYMBOL LED 1184 224 R0
SYMATTR InstName D2
SYMBOL res 624 608 R0
SYMATTR InstName R3
SYMATTR Value 1000
SYMBOL res 944 608 R0
SYMATTR InstName R4
SYMATTR Value 1000
TEXT -832 -264 Left 2 !.MODEL TIP42C PNP (IS=5.65618e-10 BF=120.073 NF=1.24004 VAF=90.6071 IKF=1.46498 ISE=6.98929e-14 NE=4 BR=2.83268 NR=1.30331 VAR=27.1221 IKR=10 ISC=6.98934e-14 NC=3.78125 RB=4.71382 IRB=0.234602 RBM=0.12691 RE=0.000666374 RC=0.0927424 XTB=3.21145 XTI=1 EG=1.05 CJE=1.93221e-10 VJE=0.4 MJE=0.259369 TF=9.99163e-09 XTF=4.41941 VTF=6.53488 ITF=0.001 CJC=1.0962e-10 VJC=0.731968 MJC=0.23 XCJC=0.799902 FC=0.799995 CJS=0 VJS=0.75 MJS=0.5 TR=1e-07 PTF=0 KF=0 AF=1 Vceo=100 ICrating=6 mfg=ON_Semi)
TEXT -832 248 Left 2 !.tran 10
